   6

    O        -1.2989763210        0.6521144547       -1.6253550331
    O        -1.1297491065       -1.6836273089       -0.0681733274
    O        -1.6003329884        0.8342300750        1.1492162540
    O         1.5358440188       -1.5935212657        0.3039723149
    O         1.0551804315        0.9978052985        1.4485915139
    O         1.4380339657        0.7929987463       -1.2082517222
   6

    O        -1.3024122259        0.6856153133       -1.6080668602
    O        -1.0999970938       -1.7027215203       -0.1416933159
    O        -1.6176463676        0.7564410276        1.1708851044
    O         1.5588077812       -1.5736248585        0.2598625471
    O         1.0325920733        0.9441237614        1.4913008444
    O         1.4286558327        0.8901662765       -1.1722883197
   6

    O        -1.3013350377        0.6871196496       -1.6040180518
    O        -1.0952496198       -1.7122138058       -0.1664453277
    O        -1.6146037527        0.7292212326        1.1757609571
    O         1.5555188665       -1.5849379705        0.2855646864
    O         1.0348935392        0.9037494593        1.4855123488
    O         1.4207760044        0.9770614348       -1.1763746129
   6

    O        -1.2930225781        0.6824492286       -1.6036212843
    O        -1.1024284030       -1.7178659804       -0.1654982871
    O        -1.6063166053        0.7264614079        1.1733501337
    O         1.5366422339       -1.6386187962        0.3695081712
    O         1.0469521490        0.8807729209        1.4412927356
    O         1.4181732035        1.0668012192       -1.2150314691
   6

    O        -1.2827051868        0.6798286391       -1.6037405322
    O        -1.1098445191       -1.7229917532       -0.1609919560
    O        -1.5969808555        0.7266727362        1.1697805212
    O         1.5134020048       -1.7040234277        0.4632097225
    O         1.0609610324        0.8609429220        1.3911237577
    O         1.4151675243        1.1595708836       -1.2593815131
   6

    O        -1.2715662870        0.6771359165       -1.6053813757
    O        -1.1168431443       -1.7277228017       -0.1556827730
    O        -1.5851959270        0.7283247404        1.1649847453
    O         1.4867947456       -1.7680036975        0.5546140304
    O         1.0767660739        0.8418720914        1.3423610649
    O         1.4100445389        1.2483937510       -1.3008956918
   6

    O        -1.2607962624        0.6719075473       -1.6106981942
    O        -1.1244901983       -1.7318545909       -0.1496730458
    O        -1.5694669880        0.7326189457        1.1575593018
    O         1.4577679170       -1.8244106938        0.6378178363
    O         1.0950275497        0.8234525048        1.3005285291
    O         1.4019579821        1.3282862868       -1.3355344271
   6

    O        -1.2513164850        0.6643751566       -1.6200140043
    O        -1.1334595509       -1.7343927216       -0.1425003165
    O        -1.5501976741        0.7407829157        1.1470401013
    O         1.4276557778       -1.8724655218        0.7098973204
    O         1.1156649342        0.8050407770        1.2678117272
    O         1.3916529980        1.3966593941       -1.3622348282
   6

    O        -1.2434819773        0.6565914615       -1.6317538513
    O        -1.1440867252       -1.7345156833       -0.1344332740
    O        -1.5286643256        0.7525832340        1.1346557439
    O         1.3971091582       -1.9133371502        0.7715974697
    O         1.1376012439        0.7869067251        1.2430291391
    O         1.3815226259        1.4517714129       -1.3830952274
