  24

T4           -1.2490225141        0.6664849837       -1.6289977164
T4           -1.8037406320        1.2648125059       -2.1295212680
T4           -1.4971784468        0.8157024105       -0.7166465600
T4           -1.3518000792        0.7621797562       -1.5762788143
T4           -1.0665253045       -1.7608815202       -0.1616767393
T4           -1.4189593116       -1.1771469227        0.5100940776
T4           -1.1681061159       -1.2743314182       -0.9797122991
T4           -1.1246446789       -1.6238721658       -0.1804003910
T4           -1.6551030097        0.7090314127        1.1172837598
T4           -2.1505527479        1.1082495349        1.8323965396
T4           -0.7380964091        0.8520761315        1.3515249663
T4           -1.6011386453        0.7784475987        1.2388125239
T4            1.5935968634       -1.5162031136        0.2531907060
T4            2.0350462325       -2.3613136208        0.1686772447
T4            0.6670619414       -1.7148358814        0.1178766200
T4            1.5315000601       -1.6498148454        0.2250501278
T4            0.9832553162        0.9749667697        1.5584021570
T4            1.3228955707        0.0804575835        1.5854142521
T4            1.2310191922        1.2997065452        0.6927295977
T4            1.0584501319        0.9020294109        1.4510434993
T4            1.4732010120        0.9374836147       -1.1464303009
T4            1.6750689257        0.0571263643       -0.8294881973
T4            0.5751039877        0.8753824147       -1.4716948330
T4            1.3840752859        0.8168375624       -1.1474956722
  24

T4           -1.2429378877        0.6824041020       -1.6164896232
T4           -1.8225245660        1.2640409943       -2.1084343842
T4           -1.4897309987        0.8156007810       -0.7012936633
T4           -1.3487244709        0.7739114235       -1.5623083633
T4           -1.0752256463       -1.7704081924       -0.1865714521
T4           -1.4288836976       -1.1919979999        0.4891499934
T4           -1.1655012262       -1.2731132098       -0.9994551215
T4           -1.1320545071       -1.6327049517       -0.2041298716
T4           -1.6469641967        0.6783032716        1.1308231175
T4           -2.1324877088        1.0636279938        1.8602226087
T4           -0.7268592950        0.8195285166        1.3537451667
T4           -1.5913325357        0.7457080202        1.2527317643
T4            1.5736460107       -1.5163816758        0.2825652929
T4            1.9953957781       -2.3722265098        0.3593024678
T4            0.6527379617       -1.7167883131        0.1152411017
T4            1.5097477284       -1.6515946077        0.2709690619
T4            0.9955036104        0.9437473678        1.5340390384
T4            1.3065604552        0.0396972569        1.4874678412
T4            1.2397151397        1.3253067214        0.6908278972
T4            1.0665846615        0.8768622471        1.4201361640
T4            1.4819877480        0.9994870110       -1.1769910829
T4            1.7106459322        0.1138813124       -0.8947680835
T4            0.5786379263        0.9274143818       -1.4852060662
T4            1.3956190783        0.8768926308       -1.1803183705
  24

T4           -1.2375213135        0.6863967371       -1.6107185325
T4           -1.8352204600        1.2510237121       -2.1008041877
T4           -1.4854261691        0.8121517754       -0.6947705575
T4           -1.3457688278        0.7747739642       -1.5562030176
T4           -1.0790442877       -1.7755751691       -0.1940791618
T4           -1.4337866307       -1.1997174499        0.4832520698
T4           -1.1576046366       -1.2707752004       -1.0035463342
T4           -1.1345122600       -1.6372379471       -0.2109941564
T4           -1.6427052220        0.6670373757        1.1349502075
T4           -2.1172014251        1.0541905798        1.8706115358
T4           -0.7191024617        0.7983236223        1.3493183549
T4           -1.5852141643        0.7334038803        1.2565654424
T4            1.5631348828       -1.5574432164        0.3324818176
T4            1.9479661666       -2.4162981556        0.5071383845
T4            0.6445685486       -1.7415095086        0.1360452383
T4            1.4948103569       -1.6909497167        0.3296937132
T4            1.0049578780        0.9092058578        1.5066221643
T4            1.3023859772        0.0034328557        1.4209271563
T4            1.2421523598        1.3193927455        0.6749267063
T4            1.0733960185        0.8457648560        1.3891851165
T4            1.4751136433        1.0935813943       -1.1966387458
T4            1.7635042417        0.2030584660       -0.9965597191
T4            0.5691791810        0.9925350552       -1.4887076200
T4            1.3960605782        0.9666485649       -1.2084145561
  24

T4           -1.2327113623        0.6867230142       -1.6079245081
T4           -1.8427141344        1.2390472361       -2.0968686889
T4           -1.4815100486        0.8072806848       -0.6915201750
T4           -1.3426483103        0.7728600147       -1.5532044514
T4           -1.0808905306       -1.7801975578       -0.1979306441
T4           -1.4354592852       -1.2056777537        0.4806265260
T4           -1.1483113777       -1.2690906311       -1.0044391554
T4           -1.1349102908       -1.6412242383       -0.2143099595
T4           -1.6390366561        0.6607971459        1.1356313863
T4           -2.1042625053        1.0519640865        1.8750806230
T4           -0.7126368398        0.7832974843        1.3430172284
T4           -1.5800008243        0.7265527549        1.2568376998
T4            1.5526297395       -1.6117641025        0.3970395815
T4            1.9040629541       -2.4755299582        0.6129911554
T4            0.6375440763       -1.7752153145        0.1687113744
T4            1.4804754257       -1.7432602804        0.3954552231
T4            1.0128416249        0.8820150240        1.4804683984
T4            1.3044076587       -0.0240225041        1.3788953434
T4            1.2438569327        1.3027383506        0.6523043748
T4            1.0797383415        0.8198889510        1.3614508352
T4            1.4604206726        1.1911547860       -1.2098268676
T4            1.8178736411        0.3086587698       -1.1115415851
T4            0.5548938901        1.0536991513       -1.4879617895
T4            1.3902606120        1.0605886691       -1.2328497913
  24

T4           -1.2271388947        0.6861246387       -1.6063689372
T4           -1.8485204995        1.2267298890       -2.0940806396
T4           -1.4763456060        0.8019510453       -0.6894653989
T4           -1.3385847027        0.7701558106       -1.5514272041
T4           -1.0824325552       -1.7852012514       -0.2007685733
T4           -1.4362648360       -1.2108754222        0.4783370142
T4           -1.1381432959       -1.2687920864       -1.0047895479
T4           -1.1348590031       -1.6455740126       -0.2167592499
T4           -1.6345770034        0.6553788981        1.1352523921
T4           -2.0914020126        1.0505834172        1.8777859867
T4           -0.7057771167        0.7702907726        1.3361450789
T4           -1.5741585248        0.7206799510        1.2560223384
T4            1.5394941652       -1.6673634522        0.4647528097
T4            1.8609280037       -2.5366513415        0.7040239798
T4            0.6296225749       -1.8111581880        0.2045824748
T4            1.4641670335       -1.7970502509        0.4620774645
T4            1.0208745476        0.8582389349        1.4554983736
T4            1.3086944713       -0.0482294913        1.3473016838
T4            1.2477396267        1.2824648883        0.6279741042
T4            1.0867604375        0.7965060802        1.3357148014
T4            1.4434342204        1.2843551577       -1.2187392458
T4            1.8676542587        0.4263999837       -1.2322343701
T4            0.5409028454        1.1100417713       -1.4857295087
T4            1.3822045986        1.1522123278       -1.2546447594
  24

T4           -1.2203171373        0.6853591662       -1.6057070757
T4           -1.8539671107        1.2131044601       -2.0917157751
T4           -1.4693621993        0.7960720090       -0.6881281617
T4           -1.3333127514        0.7670895106       -1.5504608814
T4           -1.0841295228       -1.7908519868       -0.2030494619
T4           -1.4369195589       -1.2152538773        0.4755209815
T4           -1.1266280944       -1.2703191402       -1.0052160700
T4           -1.1347312337       -1.6505339998       -0.2188712622
T4           -1.6289371276        0.6496447131        1.1340457293
T4           -2.0778742163        1.0493290191        1.8789885364
T4           -0.6979956739        0.7578395372        1.3286574706
T4           -1.5672347536        0.7146593693        1.2543200471
T4            1.5233464454       -1.7214180904        0.5317461134
T4            1.8168163066       -2.5953339759        0.7893859892
T4            0.6200556375       -1.8475375335        0.2412440611
T4            1.4452820068       -1.8494346778        0.5275393583
T4            1.0294981497        0.8359073983        1.4316971133
T4            1.3142636673       -0.0712548950        1.3212570230
T4            1.2547358019        1.2606052630        0.6039703687
T4            1.0947847086        0.7741461306        1.3116004396
T4            1.4261761527        1.3712365994       -1.2241654609
T4            1.9095076949        0.5554457776       -1.3549622321
T4            0.5286045917        1.1625549385       -1.4831038655
T4            1.3731484325        1.2400917615       -1.2740562655
  24

T4           -1.2122854789        0.6838828190       -1.6065753195
T4           -1.8605082789        1.1957326958       -2.0903611659
T4           -1.4599807168        0.7895726174       -0.6880392148
T4           -1.3269737969        0.7629353480       -1.5509220413
T4           -1.0867762669       -1.7976360820       -0.2051517866
T4           -1.4373896642       -1.2187490577        0.4717469494
T4           -1.1143884930       -1.2744554554       -1.0062456868
T4           -1.1351937099       -1.6565581264       -0.2210502660
T4           -1.6204530335        0.6434241171        1.1316408904
T4           -2.0621145189        1.0475060378        1.8785577356
T4           -0.6876288836        0.7453692902        1.3205274356
T4           -1.5575782866        0.7082016902        1.2514350147
T4            1.5036509533       -1.7732772244        0.5966064552
T4            1.7698735214       -2.6499090824        0.8738680098
T4            0.6079616389       -1.8841021615        0.2777172497
T4            1.4230716154       -1.8996836077        0.5912776136
T4            1.0403051517        0.8140194168        1.4099878401
T4            1.3212894430       -0.0942289323        1.2987915976
T4            1.2656093241        1.2380227893        0.5819232230
T4            1.1051161834        0.7520302174        1.2897511180
T4            1.4083776452        1.4527869701       -1.2260828223
T4            1.9414649644        0.6985322092       -1.4773784761
T4            0.5174530482        1.2124152425       -1.4804578115
T4            1.3625701564        1.3254627795       -1.2908147655
  24

T4           -1.2035052688        0.6820206372       -1.6091730043
T4           -1.8684455742        1.1747521666       -2.0901115349
T4           -1.4487136267        0.7826597351       -0.6894032107
T4           -1.3200152785        0.7579792364       -1.5529973082
T4           -1.0899631383       -1.8052999153       -0.2071210431
T4           -1.4375948820       -1.2209701705        0.4666317010
T4           -1.1013956441       -1.2815289963       -1.0082235098
T4           -1.1359276943       -1.6634496613       -0.2234233441
T4           -1.6091510596        0.6365714330        1.1280164230
T4           -2.0440536855        1.0448978781        1.8765891049
T4           -0.6746581929        0.7325304549        1.3117194123
T4           -1.5451974813        0.7011260569        1.2473589567
T4            1.4816575787       -1.8227040580        0.6579715174
T4            1.7190433082       -2.6990853712        0.9610154900
T4            0.5941185252       -1.9202720055        0.3130269361
T4            1.3984301092       -1.9473813139        0.6526077339
T4            1.0533017421        0.7921082827        1.3904296608
T4            1.3298664228       -0.1174310475        1.2787066813
T4            1.2800024180        1.2153220310        0.5623422458
T4            1.1177257796        0.7298527408        1.2701225916
T4            1.3905554167        1.5282218452       -1.2254008005
T4            1.9616882118        0.8553571130       -1.5959304518
T4            0.5074219879        1.2593218915       -1.4783830170
T4            1.3506155713        1.4076646031       -1.3052178422
  24

T4           -1.1945525450        0.6801847844       -1.6132079107
T4           -1.8781261925        1.1505128633       -2.0904399367
T4           -1.4359331074        0.7757890457       -0.6918897846
T4           -1.3129578433        0.7526309519       -1.5563595320
T4           -1.0937016695       -1.8134745346       -0.2085272642
T4           -1.4369191735       -1.2212648961        0.4605925525
T4           -1.0881844597       -1.2915790278       -1.0109152504
T4           -1.1369313815       -1.6708556344       -0.2255871978
T4           -1.5950803776        0.6293913172        1.1234689992
T4           -2.0236896693        1.0416784922        1.8734991322
T4           -0.6591051868        0.7195111747        1.3025240003
T4           -1.5301314212        0.6937054788        1.2424031057
T4            1.4582039072       -1.8700830678        0.7152153236
T4            1.6641269713       -2.7425247441        1.0508833933
T4            0.5789225244       -1.9560518082        0.3468330959
T4            1.3720059184       -1.9927711642        0.7110275167
T4            1.0686597129        0.7697101415        1.3728428090
T4            1.3400115387       -0.1413161561        1.2604545906
T4            1.2976992740        1.1922032648        0.5450310669
T4            1.1327158476        0.7071720011        1.2524858706
T4            1.3732881869        1.5964103550       -1.2229619180
T4            1.9689287884        1.0255800320       -1.7083451236
T4            0.4985913590        1.3023254689       -1.4772282725
T4            1.3375656232        1.4856907731       -1.3176459855
